
OS:Version,
  {1fb44527-e194-4bd4-8a00-7ef1c2ffcd83}, !- Handle
  3.5.0;                                  !- Version Identifier

OS:SimulationControl,
  {5b09a761-9519-4bbb-90c8-2c0314fe5763}, !- Handle
  Yes,                                    !- Do Zone Sizing Calculation
  Yes,                                    !- Do System Sizing Calculation
  ,                                       !- Do Plant Sizing Calculation
  No,                                     !- Run Simulation for Sizing Periods
  Yes;                                    !- Run Simulation for Weather File Run Periods

OS:Timestep,
  {ef14f7bd-97dc-435f-89bc-b163abeb1fbb}, !- Handle
  6;                                      !- Number of Timesteps per Hour

OS:RunPeriod,
  {6547317c-1ba7-4c4a-bde2-8fb0de349cae}, !- Handle
  Run Period 1,                           !- Name
  1,                                      !- Begin Month
  1,                                      !- Begin Day of Month
  12,                                     !- End Month
  31,                                     !- End Day of Month
  No,                                     !- Use Weather File Holidays and Special Days
  No,                                     !- Use Weather File Daylight Saving Period
  No,                                     !- Apply Weekend Holiday Rule
  Yes,                                    !- Use Weather File Rain Indicators
  Yes,                                    !- Use Weather File Snow Indicators
  1;                                      !- Number of Times Runperiod to be Repeated

OS:SurfaceConvectionAlgorithm:Inside,
  {fbc3a5c2-bcf3-4024-8b25-8f1e00716cc9}, !- Handle
  TARP;                                   !- Algorithm

OS:SurfaceConvectionAlgorithm:Outside,
  {04be6c7d-d0c0-47ae-b96c-157b35814796}, !- Handle
  DOE-2;                                  !- Algorithm

OS:HeatBalanceAlgorithm,
  {cd605084-ba0d-41a4-bab6-232e396c678b}, !- Handle
  ConductionTransferFunction,             !- Algorithm
  200;                                    !- Surface Temperature Upper Limit {C}

OS:ZoneAirHeatBalanceAlgorithm,
  {e515ee58-0b81-453a-8157-def120fc43a1}, !- Handle
  ThirdOrderBackwardDifference;           !- Algorithm

OS:ConvergenceLimits,
  {073e66cc-5d7a-4ece-a24a-837ef55834cc}, !- Handle
  1;                                      !- Minimum System Timestep {minutes}

OS:ShadowCalculation,
  {22cb4145-487b-4d4f-b1d9-e3efabba646b}, !- Handle
  PolygonClipping,                        !- Shading Calculation Method
  ,                                       !- Shading Calculation Update Frequency Method
  20,                                     !- Shading Calculation Update Frequency
  15000,                                  !- Maximum Figures in Shadow Overlap Calculations
  ,                                       !- Polygon Clipping Algorithm
  512,                                    !- Pixel Counting Resolution
  ,                                       !- Sky Diffuse Modeling Algorithm
  No,                                     !- Output External Shading Calculation Results
  No,                                     !- Disable Self-Shading Within Shading Zone Groups
  No;                                     !- Disable Self-Shading From Shading Zone Groups to Other Zones

OS:Site,
  {8a4740a2-6421-4c3c-91f4-b4d909111455}, !- Handle
  Site 1,                                 !- Name
  41.77,                                  !- Latitude {deg}
  -87.75,                                 !- Longitude {deg}
  -6,                                     !- Time Zone {hr}
  190,                                    !- Elevation {m}
  ;                                       !- Terrain

OS:Site:GroundTemperature:BuildingSurface,
  {3e7673f9-9026-4ba1-ba57-3aeb16f26b13}, !- Handle
  19.527,                                 !- January Ground Temperature {C}
  19.502,                                 !- February Ground Temperature {C}
  19.536,                                 !- March Ground Temperature {C}
  19.598,                                 !- April Ground Temperature {C}
  20.002,                                 !- May Ground Temperature {C}
  21.64,                                  !- June Ground Temperature {C}
  22.225,                                 !- July Ground Temperature {C}
  22.375,                                 !- August Ground Temperature {C}
  21.449,                                 !- September Ground Temperature {C}
  20.121,                                 !- October Ground Temperature {C}
  19.802,                                 !- November Ground Temperature {C}
  19.633;                                 !- December Ground Temperature {C}

OS:Site:GroundTemperature:Deep,
  {b98c3dfb-db88-48a0-a4c3-f5c8d199079d}, !- Handle
  19.527,                                 !- January Deep Ground Temperature {C}
  19.502,                                 !- February Deep Ground Temperature {C}
  19.536,                                 !- March Deep Ground Temperature {C}
  19.598,                                 !- April Deep Ground Temperature {C}
  20.002,                                 !- May Deep Ground Temperature {C}
  21.64,                                  !- June Deep Ground Temperature {C}
  22.225,                                 !- July Deep Ground Temperature {C}
  22.375,                                 !- August Deep Ground Temperature {C}
  21.449,                                 !- September Deep Ground Temperature {C}
  20.121,                                 !- October Deep Ground Temperature {C}
  19.802,                                 !- November Deep Ground Temperature {C}
  19.633;                                 !- December Deep Ground Temperature {C}

OS:Site:WaterMainsTemperature,
  {e350bb09-34ea-45d6-a5b0-339452e96c37}, !- Handle
  Correlation,                            !- Calculation Method
  ,                                       !- Temperature Schedule Name
  9.69,                                   !- Annual Average Outdoor Air Temperature {C}
  28.1;                                   !- Maximum Difference In Monthly Average Outdoor Air Temperatures {deltaC}

OS:SizingPeriod:DesignDay,
  {01350d0a-2e26-4679-9dd9-f1d44664062a}, !- Handle
  Sizing Period Design Day 1,             !- Name
  -20.6,                                  !- Maximum Dry-Bulb Temperature {C}
  0,                                      !- Daily Dry-Bulb Temperature Range {deltaC}
  99063,                                  !- Barometric Pressure {Pa}
  4.9,                                    !- Wind Speed {m/s}
  270,                                    !- Wind Direction {deg}
  0,                                      !- Sky Clearness
  No,                                     !- Rain Indicator
  No,                                     !- Snow Indicator
  21,                                     !- Day of Month
  1,                                      !- Month
  WinterDesignDay,                        !- Day Type
  No,                                     !- Daylight Saving Time Indicator
  WetBulb,                                !- Humidity Condition Type
  ,                                       !- Humidity Condition Day Schedule Name
  -20.6,                                  !- Wetbulb or DewPoint at Maximum Dry-Bulb {C}
  ,                                       !- Humidity Ratio at Maximum Dry-Bulb {kgWater/kgDryAir}
  ,                                       !- Enthalpy at Maximum Dry-Bulb {J/kg}
  ;                                       !- Dry-Bulb Temperature Range Modifier Type

OS:SizingPeriod:DesignDay,
  {7b48a59f-de78-4654-bdb4-9cbc1970830b}, !- Handle
  Sizing Period Design Day 2,             !- Name
  33.2,                                   !- Maximum Dry-Bulb Temperature {C}
  10.7,                                   !- Daily Dry-Bulb Temperature Range {deltaC}
  99063,                                  !- Barometric Pressure {Pa}
  5.3,                                    !- Wind Speed {m/s}
  230,                                    !- Wind Direction {deg}
  1,                                      !- Sky Clearness
  No,                                     !- Rain Indicator
  No,                                     !- Snow Indicator
  21,                                     !- Day of Month
  7,                                      !- Month
  SummerDesignDay,                        !- Day Type
  No,                                     !- Daylight Saving Time Indicator
  WetBulb,                                !- Humidity Condition Type
  ,                                       !- Humidity Condition Day Schedule Name
  23.8,                                   !- Wetbulb or DewPoint at Maximum Dry-Bulb {C}
  ,                                       !- Humidity Ratio at Maximum Dry-Bulb {kgWater/kgDryAir}
  ,                                       !- Enthalpy at Maximum Dry-Bulb {J/kg}
  ;                                       !- Dry-Bulb Temperature Range Modifier Type

OS:ScheduleTypeLimits,
  {ecb4872a-8f0a-4f7d-adf1-fafe783d0979}, !- Handle
  Temperature,                            !- Name
  -60,                                    !- Lower Limit Value
  200,                                    !- Upper Limit Value
  CONTINUOUS,                             !- Numeric Type
  Temperature;                            !- Unit Type

OS:DefaultScheduleSet,
  {3ff7cb80-02dc-48a9-94e3-59c1bbda3c11}, !- Handle
  Default Schedules,                      !- Name
  ,                                       !- Hours of Operation Schedule Name
  {35eb19f7-25b3-4e1c-bf6c-0ec150d782a1}, !- Number of People Schedule Name
  {e28ee503-3bf3-43b8-b563-c1a91facee53}, !- People Activity Level Schedule Name
  {5a04339c-0cc6-42cf-b6a0-ca958d6dc386}, !- Lighting Schedule Name
  {addfa688-1cc7-4cec-9bf1-20508ac6787b}, !- Electric Equipment Schedule Name
  {fafc31de-7ae2-49d4-86ce-7f54175af4ce}, !- Gas Equipment Schedule Name
  {7c0c13cd-ae8a-4c19-beac-4d33e3bd3510}, !- Hot Water Equipment Schedule Name
  {f79a5a30-100e-4071-a33c-d1ded7dc36b2}, !- Infiltration Schedule Name
  ,                                       !- Steam Equipment Schedule Name
  ;                                       !- Other Equipment Schedule Name

OS:Schedule:Ruleset,
  {35eb19f7-25b3-4e1c-bf6c-0ec150d782a1}, !- Handle
  Medium Office Number of People Schedule, !- Name
  {244aed2d-90b8-4bd9-8a66-8af57def556d}, !- Schedule Type Limits Name
  {711aadb5-3b13-42d4-9180-fa46eb9eff75}, !- Default Day Schedule Name
  {f348f5ac-8738-4d15-a15e-922dffdb5aa3}; !- Summer Design Day Schedule Name

OS:Schedule:Day,
  {711aadb5-3b13-42d4-9180-fa46eb9eff75}, !- Handle
  Medium Office Number of People All Other Days Schedule, !- Name
  {244aed2d-90b8-4bd9-8a66-8af57def556d}, !- Schedule Type Limits Name
  ,                                       !- Interpolate to Timestep
  24,                                     !- Hour 1
  0,                                      !- Minute 1
  0;                                      !- Value Until Time 1

OS:Schedule:Day,
  {2fac3555-c5f8-4857-84aa-6ad486b313fc}, !- Handle
  Medium Office Number of People Summer Design Day Schedule, !- Name
  ,                                       !- Schedule Type Limits Name
  ,                                       !- Interpolate to Timestep
  6,                                      !- Hour 1
  0,                                      !- Minute 1
  0,                                      !- Value Until Time 1
  22,                                     !- Hour 2
  0,                                      !- Minute 2
  1,                                      !- Value Until Time 2
  24,                                     !- Hour 3
  0,                                      !- Minute 3
  0.05;                                   !- Value Until Time 3

OS:Schedule:Day,
  {f348f5ac-8738-4d15-a15e-922dffdb5aa3}, !- Handle
  Medium Office Number of People Summer Design Day Schedule 1, !- Name
  {244aed2d-90b8-4bd9-8a66-8af57def556d}, !- Schedule Type Limits Name
  ,                                       !- Interpolate to Timestep
  6,                                      !- Hour 1
  0,                                      !- Minute 1
  0,                                      !- Value Until Time 1
  22,                                     !- Hour 2
  0,                                      !- Minute 2
  1,                                      !- Value Until Time 2
  24,                                     !- Hour 3
  0,                                      !- Minute 3
  0.05;                                   !- Value Until Time 3

OS:Schedule:Rule,
  {956dd803-3792-4677-9cd9-fcfe58e85f14}, !- Handle
  Medium Office Number of People Schedule Weekdays Rule, !- Name
  {35eb19f7-25b3-4e1c-bf6c-0ec150d782a1}, !- Schedule Ruleset Name
  1,                                      !- Rule Order
  {34538807-94ac-4dfd-85b2-6f94af5b2807}, !- Day Schedule Name
  ,                                       !- Apply Sunday
  Yes,                                    !- Apply Monday
  Yes,                                    !- Apply Tuesday
  Yes,                                    !- Apply Wednesday
  Yes,                                    !- Apply Thursday
  Yes;                                    !- Apply Friday

OS:Schedule:Day,
  {34538807-94ac-4dfd-85b2-6f94af5b2807}, !- Handle
  Medium Office Number of People Weekdays Schedule, !- Name
  {244aed2d-90b8-4bd9-8a66-8af57def556d}, !- Schedule Type Limits Name
  ,                                       !- Interpolate to Timestep
  6,                                      !- Hour 1
  0,                                      !- Minute 1
  0,                                      !- Value Until Time 1
  7,                                      !- Hour 2
  0,                                      !- Minute 2
  0.1,                                    !- Value Until Time 2
  8,                                      !- Hour 3
  0,                                      !- Minute 3
  0.2,                                    !- Value Until Time 3
  12,                                     !- Hour 4
  0,                                      !- Minute 4
  0.95,                                   !- Value Until Time 4
  13,                                     !- Hour 5
  0,                                      !- Minute 5
  0.5,                                    !- Value Until Time 5
  17,                                     !- Hour 6
  0,                                      !- Minute 6
  0.95,                                   !- Value Until Time 6
  18,                                     !- Hour 7
  0,                                      !- Minute 7
  0.7,                                    !- Value Until Time 7
  20,                                     !- Hour 8
  0,                                      !- Minute 8
  0.4,                                    !- Value Until Time 8
  22,                                     !- Hour 9
  0,                                      !- Minute 9
  0.1,                                    !- Value Until Time 9
  24,                                     !- Hour 10
  0,                                      !- Minute 10
  0.05;                                   !- Value Until Time 10

OS:Schedule:Rule,
  {ddc195e4-18e8-4493-9557-913a946a0fe7}, !- Handle
  Medium Office Number of People Schedule Saturday Rule, !- Name
  {35eb19f7-25b3-4e1c-bf6c-0ec150d782a1}, !- Schedule Ruleset Name
  0,                                      !- Rule Order
  {fe3e8684-02f7-4885-b794-746550d7c12b}, !- Day Schedule Name
  ,                                       !- Apply Sunday
  ,                                       !- Apply Monday
  ,                                       !- Apply Tuesday
  ,                                       !- Apply Wednesday
  ,                                       !- Apply Thursday
  ,                                       !- Apply Friday
  Yes;                                    !- Apply Saturday

OS:Schedule:Day,
  {fe3e8684-02f7-4885-b794-746550d7c12b}, !- Handle
  Medium Office Number of People Saturday Schedule, !- Name
  {244aed2d-90b8-4bd9-8a66-8af57def556d}, !- Schedule Type Limits Name
  ,                                       !- Interpolate to Timestep
  6,                                      !- Hour 1
  0,                                      !- Minute 1
  0,                                      !- Value Until Time 1
  8,                                      !- Hour 2
  0,                                      !- Minute 2
  0.1,                                    !- Value Until Time 2
  14,                                     !- Hour 3
  0,                                      !- Minute 3
  0.5,                                    !- Value Until Time 3
  17,                                     !- Hour 4
  0,                                      !- Minute 4
  0.1,                                    !- Value Until Time 4
  24,                                     !- Hour 5
  0,                                      !- Minute 5
  0;                                      !- Value Until Time 5

OS:ScheduleTypeLimits,
  {244aed2d-90b8-4bd9-8a66-8af57def556d}, !- Handle
  Fractional,                             !- Name
  0,                                      !- Lower Limit Value
  1,                                      !- Upper Limit Value
  Continuous;                             !- Numeric Type

OS:Schedule:Ruleset,
  {e28ee503-3bf3-43b8-b563-c1a91facee53}, !- Handle
  Medium Office People Activity Level Schedule, !- Name
  {59594f34-4a29-4b9a-894f-452ee3689e91}, !- Schedule Type Limits Name
  {87820c12-afb6-4b6c-a001-ade415330e92}; !- Default Day Schedule Name

OS:Schedule:Day,
  {87820c12-afb6-4b6c-a001-ade415330e92}, !- Handle
  Medium Office People Activity Level All Days Schedule, !- Name
  {59594f34-4a29-4b9a-894f-452ee3689e91}, !- Schedule Type Limits Name
  ,                                       !- Interpolate to Timestep
  24,                                     !- Hour 1
  0,                                      !- Minute 1
  120;                                    !- Value Until Time 1

OS:ScheduleTypeLimits,
  {59594f34-4a29-4b9a-894f-452ee3689e91}, !- Handle
  ActivityLevel,                          !- Name
  0,                                      !- Lower Limit Value
  ,                                       !- Upper Limit Value
  Continuous,                             !- Numeric Type
  ActivityLevel;                          !- Unit Type

OS:Schedule:Ruleset,
  {5a04339c-0cc6-42cf-b6a0-ca958d6dc386}, !- Handle
  Medium Office Lighting Schedule,        !- Name
  {244aed2d-90b8-4bd9-8a66-8af57def556d}, !- Schedule Type Limits Name
  {7e0d76d4-a931-4735-b1fc-4100bcdfce46}, !- Default Day Schedule Name
  {d4130f6c-429b-4c25-b9d6-f4a58852ec57}, !- Summer Design Day Schedule Name
  {fd37734a-3cea-4667-baed-60144d8d4137}; !- Winter Design Day Schedule Name

OS:Schedule:Day,
  {7e0d76d4-a931-4735-b1fc-4100bcdfce46}, !- Handle
  Medium Office Lighting All Other Days Schedule, !- Name
  {244aed2d-90b8-4bd9-8a66-8af57def556d}, !- Schedule Type Limits Name
  ,                                       !- Interpolate to Timestep
  24,                                     !- Hour 1
  0,                                      !- Minute 1
  0.05;                                   !- Value Until Time 1

OS:Schedule:Day,
  {bbe03312-5aad-43e5-9662-dd50bf1016ff}, !- Handle
  Medium Office Lighting Summer Design Day Schedule, !- Name
  ,                                       !- Schedule Type Limits Name
  ,                                       !- Interpolate to Timestep
  6,                                      !- Hour 1
  0,                                      !- Minute 1
  1,                                      !- Value Until Time 1
  24,                                     !- Hour 2
  0,                                      !- Minute 2
  0;                                      !- Value Until Time 2

OS:Schedule:Day,
  {d4130f6c-429b-4c25-b9d6-f4a58852ec57}, !- Handle
  Medium Office Lighting Summer Design Day Schedule 1, !- Name
  {244aed2d-90b8-4bd9-8a66-8af57def556d}, !- Schedule Type Limits Name
  ,                                       !- Interpolate to Timestep
  6,                                      !- Hour 1
  0,                                      !- Minute 1
  1,                                      !- Value Until Time 1
  24,                                     !- Hour 2
  0,                                      !- Minute 2
  0;                                      !- Value Until Time 2

OS:Schedule:Day,
  {961f02ce-c2c2-4e8d-8fe6-c33d1e10e7c0}, !- Handle
  Medium Office Lighting Winter Design Day Schedule, !- Name
  ,                                       !- Schedule Type Limits Name
  ,                                       !- Interpolate to Timestep
  24,                                     !- Hour 1
  0,                                      !- Minute 1
  0;                                      !- Value Until Time 1

OS:Schedule:Day,
  {fd37734a-3cea-4667-baed-60144d8d4137}, !- Handle
  Medium Office Lighting Winter Design Day Schedule 1, !- Name
  {244aed2d-90b8-4bd9-8a66-8af57def556d}, !- Schedule Type Limits Name
  ,                                       !- Interpolate to Timestep
  24,                                     !- Hour 1
  0,                                      !- Minute 1
  0;                                      !- Value Until Time 1

OS:Schedule:Rule,
  {544454a0-f4d0-47fb-a8e6-824cc5e29f27}, !- Handle
  Medium Office Lighting Schedule Weekdays Rule, !- Name
  {5a04339c-0cc6-42cf-b6a0-ca958d6dc386}, !- Schedule Ruleset Name
  1,                                      !- Rule Order
  {c5079683-5249-4be4-bfb3-ba0f752307ce}, !- Day Schedule Name
  ,                                       !- Apply Sunday
  Yes,                                    !- Apply Monday
  Yes,                                    !- Apply Tuesday
  Yes,                                    !- Apply Wednesday
  Yes,                                    !- Apply Thursday
  Yes;                                    !- Apply Friday

OS:Schedule:Day,
  {c5079683-5249-4be4-bfb3-ba0f752307ce}, !- Handle
  Medium Office Lighting Weekdays Schedule, !- Name
  {244aed2d-90b8-4bd9-8a66-8af57def556d}, !- Schedule Type Limits Name
  ,                                       !- Interpolate to Timestep
  5,                                      !- Hour 1
  0,                                      !- Minute 1
  0.05,                                   !- Value Until Time 1
  7,                                      !- Hour 2
  0,                                      !- Minute 2
  0.1,                                    !- Value Until Time 2
  8,                                      !- Hour 3
  0,                                      !- Minute 3
  0.3,                                    !- Value Until Time 3
  17,                                     !- Hour 4
  0,                                      !- Minute 4
  0.9,                                    !- Value Until Time 4
  18,                                     !- Hour 5
  0,                                      !- Minute 5
  0.7,                                    !- Value Until Time 5
  20,                                     !- Hour 6
  0,                                      !- Minute 6
  0.5,                                    !- Value Until Time 6
  22,                                     !- Hour 7
  0,                                      !- Minute 7
  0.3,                                    !- Value Until Time 7
  23,                                     !- Hour 8
  0,                                      !- Minute 8
  0.1,                                    !- Value Until Time 8
  24,                                     !- Hour 9
  0,                                      !- Minute 9
  0.05;                                   !- Value Until Time 9

OS:Schedule:Rule,
  {f3935ddd-cb44-4dac-a685-bb3a0dad176d}, !- Handle
  Medium Office Lighting Schedule Saturday Rule, !- Name
  {5a04339c-0cc6-42cf-b6a0-ca958d6dc386}, !- Schedule Ruleset Name
  0,                                      !- Rule Order
  {8454c053-75f5-467c-baa5-b86184289ac7}, !- Day Schedule Name
  ,                                       !- Apply Sunday
  ,                                       !- Apply Monday
  ,                                       !- Apply Tuesday
  ,                                       !- Apply Wednesday
  ,                                       !- Apply Thursday
  ,                                       !- Apply Friday
  Yes;                                    !- Apply Saturday

OS:Schedule:Day,
  {8454c053-75f5-467c-baa5-b86184289ac7}, !- Handle
  Medium Office Lighting Saturday Schedule, !- Name
  {244aed2d-90b8-4bd9-8a66-8af57def556d}, !- Schedule Type Limits Name
  ,                                       !- Interpolate to Timestep
  6,                                      !- Hour 1
  0,                                      !- Minute 1
  0.05,                                   !- Value Until Time 1
  8,                                      !- Hour 2
  0,                                      !- Minute 2
  0.1,                                    !- Value Until Time 2
  14,                                     !- Hour 3
  0,                                      !- Minute 3
  0.5,                                    !- Value Until Time 3
  17,                                     !- Hour 4
  0,                                      !- Minute 4
  0.15,                                   !- Value Until Time 4
  24,                                     !- Hour 5
  0,                                      !- Minute 5
  0.05;                                   !- Value Until Time 5

OS:Schedule:Ruleset,
  {addfa688-1cc7-4cec-9bf1-20508ac6787b}, !- Handle
  Medium Office Electric Equipment Schedule, !- Name
  {244aed2d-90b8-4bd9-8a66-8af57def556d}, !- Schedule Type Limits Name
  {ba2f0a1b-5385-4bfd-aa9c-365a9def1ee2}, !- Default Day Schedule Name
  {374f2fea-0391-4e00-a695-ce10e2d8f3b8}, !- Summer Design Day Schedule Name
  {875d9052-4270-4ab7-9d58-2c1a05d19562}; !- Winter Design Day Schedule Name

OS:Schedule:Day,
  {ba2f0a1b-5385-4bfd-aa9c-365a9def1ee2}, !- Handle
  Medium Office Electric Equipment All Other Days Schedule, !- Name
  {244aed2d-90b8-4bd9-8a66-8af57def556d}, !- Schedule Type Limits Name
  ,                                       !- Interpolate to Timestep
  24,                                     !- Hour 1
  0,                                      !- Minute 1
  0.3;                                    !- Value Until Time 1

OS:Schedule:Day,
  {e7f428d8-8c68-4b3f-9a45-3c425b0b8702}, !- Handle
  Medium Office Electric Equipment Summer Design Day Schedule, !- Name
  ,                                       !- Schedule Type Limits Name
  ,                                       !- Interpolate to Timestep
  6,                                      !- Hour 1
  0,                                      !- Minute 1
  1,                                      !- Value Until Time 1
  24,                                     !- Hour 2
  0,                                      !- Minute 2
  0;                                      !- Value Until Time 2

OS:Schedule:Day,
  {374f2fea-0391-4e00-a695-ce10e2d8f3b8}, !- Handle
  Medium Office Electric Equipment Summer Design Day Schedule 1, !- Name
  {244aed2d-90b8-4bd9-8a66-8af57def556d}, !- Schedule Type Limits Name
  ,                                       !- Interpolate to Timestep
  6,                                      !- Hour 1
  0,                                      !- Minute 1
  1,                                      !- Value Until Time 1
  24,                                     !- Hour 2
  0,                                      !- Minute 2
  0;                                      !- Value Until Time 2

OS:Schedule:Day,
  {7f73992f-1d5f-4a7b-ae53-26409cff8f0b}, !- Handle
  Medium Office Electric Equipment Winter Design Day Schedule, !- Name
  ,                                       !- Schedule Type Limits Name
  ,                                       !- Interpolate to Timestep
  24,                                     !- Hour 1
  0,                                      !- Minute 1
  0;                                      !- Value Until Time 1

OS:Schedule:Day,
  {875d9052-4270-4ab7-9d58-2c1a05d19562}, !- Handle
  Medium Office Electric Equipment Winter Design Day Schedule 1, !- Name
  {244aed2d-90b8-4bd9-8a66-8af57def556d}, !- Schedule Type Limits Name
  ,                                       !- Interpolate to Timestep
  24,                                     !- Hour 1
  0,                                      !- Minute 1
  0;                                      !- Value Until Time 1

OS:Schedule:Rule,
  {b47aef5d-6928-47d8-b20f-b8a13103e130}, !- Handle
  Medium Office Electric Equipment Schedule Weekdays Rule, !- Name
  {addfa688-1cc7-4cec-9bf1-20508ac6787b}, !- Schedule Ruleset Name
  1,                                      !- Rule Order
  {08794c1d-75ee-4c23-96a9-2019fea76044}, !- Day Schedule Name
  ,                                       !- Apply Sunday
  Yes,                                    !- Apply Monday
  Yes,                                    !- Apply Tuesday
  Yes,                                    !- Apply Wednesday
  Yes,                                    !- Apply Thursday
  Yes;                                    !- Apply Friday

OS:Schedule:Day,
  {08794c1d-75ee-4c23-96a9-2019fea76044}, !- Handle
  Medium Office Electric Equipment Weekdays Schedule, !- Name
  {244aed2d-90b8-4bd9-8a66-8af57def556d}, !- Schedule Type Limits Name
  ,                                       !- Interpolate to Timestep
  8,                                      !- Hour 1
  0,                                      !- Minute 1
  0.4,                                    !- Value Until Time 1
  12,                                     !- Hour 2